#p  b3lyp empiricaldispersion=gd3

-1 1
 C                 -4.02138000    3.70179300   -0.97232600
 C                 -2.67957600    3.81071800   -0.24643000
 N                 -4.58512900    2.46741800   -1.06047000
 C                 -2.33943100    2.76138900    0.81666600
 H                 -1.89210900    3.79542000   -1.01114900
 H                 -2.66776200    4.81238000    0.19549700
 O                 -4.54560400    4.69284300   -1.48080200
 C                 -5.83429300    2.28514600   -1.78124600
 H                 -4.12583200    1.66532100   -0.64892200
 H                 -1.44350900    3.08856700    1.36115900
 O                 -2.11445500    1.48600700    0.23893000
 H                 -3.16073000    2.70287500    1.54896900
 H                 -5.78715800    2.79104000   -2.74993900
 H                 -6.68546200    2.70352200   -1.23051200
 H                 -5.99272000    1.21471200   -1.92718200
 C                 -3.07738800   -0.72103300   -1.24449800
 C                 -2.72509600   -0.07450900   -2.55464700
 O                 -2.00034900   -1.25034200   -0.66044100
 O                 -4.19898500   -0.72462600   -0.75349900
 H                 -1.94937400   -0.63876000   -3.07554700
 H                 -3.61606200    0.03503500   -3.17253900
 H                 -2.32794000    0.91465400   -2.30643500
 C                 -2.13447000   -1.63054600    0.72119700
 H                 -1.11965000   -1.83257900    1.06122400
 H                 -2.56503500   -0.79840000    1.28128100
 H                 -2.76029400   -2.52190900    0.81729200
 N                  0.45486100    0.93431500    1.02925000
 C                  1.44073000    1.47697000    0.32194900
 C                  1.08387600    0.33340100    2.10512000
 N                  2.65052900    1.25346700    0.87992100
 H                  1.31323200    2.02933700   -0.59824400
 C                  2.45071200    0.52082700    2.03131300
 H                  0.52386000   -0.19260100    2.86638700
 C                  3.58198800    0.05491000    2.90575700
 C                  4.43630200    1.18630400    3.52477500
 H                  3.15007400   -0.56044200    3.70413000
 H                  4.24033700   -0.60811400    2.32876600
 H                  5.24560600    0.76104200    4.12709200
 H                  3.82845600    1.83438900    4.16579900
 H                  4.87738800    1.80138900    2.73444400
 C                 -7.73944400   -1.06557100    0.24900700
 C                 -7.25287400   -2.29213700    1.00876000
 H                 -6.94014500   -0.52621300   -0.26596000
 H                 -8.23302900   -0.39150800    0.95488100
 H                 -8.49157600   -1.38434800   -0.47774900
 N                 -5.90632800   -2.49820000    0.97570800
 O                 -8.03998800   -3.02662400    1.60346100
 C                 -5.29378600   -3.62769700    1.64559400
 H                 -5.31028200   -1.85985900    0.45700400
 H                 -6.09098900   -4.22627200    2.08857700
 H                 -4.61160300   -3.30157200    2.44063500
 H                 -4.72941900   -4.24879000    0.93925700
 C                  5.85554600    1.26331300   -0.06607500
 C                  7.34858000    1.61379500    0.03972300
 O                  5.04380400    2.17870000    0.24929400
 O                  5.54742400    0.08618500   -0.41576500
 C                  8.26409600    0.75312000   -0.83006700
 H                  7.61687100    1.49589700    1.09924700
 H                  7.45878900    2.68026000   -0.18240700
 H                  9.31947900    1.00203500   -0.66964200
 H                  8.04012300    0.89389500   -1.89302500
 H                  8.11422400   -0.30604800   -0.60634800
 N                  3.59944500   -1.85119200   -1.23921500
 C                  2.16217900   -1.89744200   -1.03491800
 C                  4.19331500   -2.71313400   -2.11912900
 H                  4.11650400   -1.01743000   -0.94361600
 H                  1.91048200   -1.37317200   -0.11007000
 H                  1.60604100   -1.43157500   -1.85982000
 H                  1.84003900   -2.93913000   -0.96978800
 C                  5.69524400   -2.52608100   -2.28298900
 O                  3.57249700   -3.60928300   -2.69100000
 H                  5.95701700   -1.47177800   -2.40525400
 H                  6.19699800   -2.86046400   -1.36844100
 H                  6.03299900   -3.11796800   -3.13412800
 O                  5.72901400   -2.20543400    1.10316900
 H                  4.90157600   -2.48982700    0.68911100
 H                  5.88005500   -1.35607200    0.63855100
 H                  3.59747400    1.60413600    0.53279300
 H                 -1.19642400    1.18763900    0.50627300
